.SUBCKT layer2 vdd vss 0 in1 in2 in3 in4 in5 in6 in7 in8 in9 in10 in11 in12 in13 in14 in15 in16 in17 in18 in19 in20 in21 in22 in23 in24 in25 in26 in27 in28 in29 in30 in31 in32 in33 in34 in35 in36 in37 in38 in39 in40 in41 in42 in43 in44 in45 in46 in47 in48 in49 in50 in51 in52 in53 in54 in55 in56 in57 in58 in59 in60 in61 in62 in63 in64 in65 in66 in67 in68 in69 in70 in71 in72 in73 in74 in75 in76 in77 in78 in79 in80 in81 in82 in83 in84 in85 in86 in87 in88 in89 in90 in91 in92 in93 in94 in95 in96 in97 in98 in99 in100 in101 in102 in103 in104 in105 in106 in107 in108 in109 in110 in111 in112 in113 in114 in115 in116 in117 in118 in119 in120 out1 out2 out3 out4 out5 out6 out7 out8 out9 out10 out11 out12 out13 out14 out15 out16 out17 out18 out19 out20 out21 out22 out23 out24 out25 out26 out27 out28 out29 out30 out31 out32 out33 out34 out35 out36 out37 out38 out39 out40 out41 out42 out43 out44 out45 out46 out47 out48 out49 out50 out51 out52 out53 out54 out55 out56 out57 out58 out59 out60 out61 out62 out63 out64 out65 out66 out67 out68 out69 out70 out71 out72 out73 out74 out75 out76 out77 out78 out79 out80 out81 out82 out83 out84 

**********Positive Weighted Array**********
Rwpos1_1 in1_1 sp1_1 78000.000000
Rwpos1_2 in1_2 sp1_2 202000.000000
Rwpos1_3 in1_3 sp1_3 78000.000000
Rwpos1_4 in1_4 sp1_4 202000.000000
Rwpos1_5 in1_5 sp1_5 202000.000000
Rwpos1_6 in1_6 sp1_6 78000.000000
Rwpos1_7 in1_7 sp1_7 78000.000000
Rwpos1_8 in1_8 sp1_8 202000.000000
Rwpos1_9 in1_9 sp1_9 202000.000000
Rwpos1_10 in1_10 sp1_10 78000.000000
Rwpos1_11 in1_11 sp1_11 78000.000000
Rwpos1_12 in1_12 sp1_12 78000.000000
Rwpos1_13 in1_13 sp1_13 202000.000000
Rwpos1_14 in1_14 sp1_14 202000.000000
Rwpos1_15 in1_15 sp1_15 202000.000000
Rwpos1_16 in1_16 sp1_16 202000.000000
Rwpos1_17 in1_17 sp1_17 78000.000000
Rwpos1_18 in1_18 sp1_18 78000.000000
Rwpos1_19 in1_19 sp1_19 202000.000000
Rwpos1_20 in1_20 sp1_20 202000.000000
Rwpos1_21 in1_21 sp1_21 78000.000000
Rwpos1_22 in1_22 sp1_22 202000.000000
Rwpos1_23 in1_23 sp1_23 78000.000000
Rwpos1_24 in1_24 sp1_24 78000.000000
Rwpos1_25 in1_25 sp1_25 78000.000000
Rwpos1_26 in1_26 sp1_26 78000.000000
Rwpos1_27 in1_27 sp1_27 202000.000000
Rwpos1_28 in1_28 sp1_28 202000.000000
Rwpos1_29 in1_29 sp1_29 202000.000000
Rwpos1_30 in1_30 sp1_30 202000.000000
Rwpos1_31 in1_31 sp1_31 78000.000000
Rwpos1_32 in1_32 sp1_32 78000.000000
Rwpos1_33 in1_33 sp1_33 202000.000000
Rwpos1_34 in1_34 sp1_34 202000.000000
Rwpos1_35 in1_35 sp1_35 78000.000000
Rwpos1_36 in1_36 sp1_36 202000.000000
Rwpos1_37 in1_37 sp1_37 202000.000000
Rwpos1_38 in1_38 sp1_38 202000.000000
Rwpos1_39 in1_39 sp1_39 202000.000000
Rwpos1_40 in1_40 sp1_40 202000.000000
Rwpos1_41 in1_41 sp1_41 202000.000000
Rwpos1_42 in1_42 sp1_42 78000.000000
Rwpos1_43 in1_43 sp1_43 78000.000000
Rwpos1_44 in1_44 sp1_44 202000.000000
Rwpos1_45 in1_45 sp1_45 202000.000000
Rwpos1_46 in1_46 sp1_46 202000.000000
Rwpos1_47 in1_47 sp1_47 78000.000000
Rwpos1_48 in1_48 sp1_48 202000.000000
Rwpos1_49 in1_49 sp1_49 202000.000000
Rwpos1_50 in1_50 sp1_50 202000.000000
Rwpos1_51 in1_51 sp1_51 78000.000000
Rwpos1_52 in1_52 sp1_52 202000.000000
Rwpos1_53 in1_53 sp1_53 202000.000000
Rwpos1_54 in1_54 sp1_54 78000.000000
Rwpos1_55 in1_55 sp1_55 78000.000000
Rwpos1_56 in1_56 sp1_56 78000.000000
Rwpos1_57 in1_57 sp1_57 78000.000000
Rwpos1_58 in1_58 sp1_58 202000.000000
Rwpos1_59 in1_59 sp1_59 78000.000000
Rwpos1_60 in1_60 sp1_60 78000.000000
Rwpos1_61 in1_61 sp1_61 202000.000000
Rwpos1_62 in1_62 sp1_62 78000.000000
Rwpos1_63 in1_63 sp1_63 78000.000000
Rwpos1_64 in1_64 sp1_64 78000.000000
Rwpos1_65 in1_65 sp1_65 78000.000000
Rwpos1_66 in1_66 sp1_66 78000.000000
Rwpos1_67 in1_67 sp1_67 202000.000000
Rwpos1_68 in1_68 sp1_68 78000.000000
Rwpos1_69 in1_69 sp1_69 78000.000000
Rwpos1_70 in1_70 sp1_70 202000.000000
Rwpos1_71 in1_71 sp1_71 78000.000000
Rwpos1_72 in1_72 sp1_72 202000.000000
Rwpos1_73 in1_73 sp1_73 78000.000000
Rwpos1_74 in1_74 sp1_74 202000.000000
Rwpos1_75 in1_75 sp1_75 78000.000000
Rwpos1_76 in1_76 sp1_76 202000.000000
Rwpos1_77 in1_77 sp1_77 78000.000000
Rwpos1_78 in1_78 sp1_78 78000.000000
Rwpos1_79 in1_79 sp1_79 78000.000000
Rwpos1_80 in1_80 sp1_80 78000.000000
Rwpos1_81 in1_81 sp1_81 78000.000000
Rwpos1_82 in1_82 sp1_82 202000.000000
Rwpos1_83 in1_83 sp1_83 78000.000000
Rwpos1_84 in1_84 sp1_84 78000.000000
Rwpos2_1 in2_1 sp2_1 78000.000000
Rwpos2_2 in2_2 sp2_2 78000.000000
Rwpos2_3 in2_3 sp2_3 202000.000000
Rwpos2_4 in2_4 sp2_4 78000.000000
Rwpos2_5 in2_5 sp2_5 78000.000000
Rwpos2_6 in2_6 sp2_6 78000.000000
Rwpos2_7 in2_7 sp2_7 202000.000000
Rwpos2_8 in2_8 sp2_8 78000.000000
Rwpos2_9 in2_9 sp2_9 202000.000000
Rwpos2_10 in2_10 sp2_10 78000.000000
Rwpos2_11 in2_11 sp2_11 78000.000000
Rwpos2_12 in2_12 sp2_12 202000.000000
Rwpos2_13 in2_13 sp2_13 78000.000000
Rwpos2_14 in2_14 sp2_14 78000.000000
Rwpos2_15 in2_15 sp2_15 202000.000000
Rwpos2_16 in2_16 sp2_16 202000.000000
Rwpos2_17 in2_17 sp2_17 78000.000000
Rwpos2_18 in2_18 sp2_18 78000.000000
Rwpos2_19 in2_19 sp2_19 202000.000000
Rwpos2_20 in2_20 sp2_20 202000.000000
Rwpos2_21 in2_21 sp2_21 78000.000000
Rwpos2_22 in2_22 sp2_22 78000.000000
Rwpos2_23 in2_23 sp2_23 78000.000000
Rwpos2_24 in2_24 sp2_24 78000.000000
Rwpos2_25 in2_25 sp2_25 202000.000000
Rwpos2_26 in2_26 sp2_26 78000.000000
Rwpos2_27 in2_27 sp2_27 202000.000000
Rwpos2_28 in2_28 sp2_28 202000.000000
Rwpos2_29 in2_29 sp2_29 78000.000000
Rwpos2_30 in2_30 sp2_30 78000.000000
Rwpos2_31 in2_31 sp2_31 202000.000000
Rwpos2_32 in2_32 sp2_32 202000.000000
Rwpos2_33 in2_33 sp2_33 202000.000000
Rwpos2_34 in2_34 sp2_34 202000.000000
Rwpos2_35 in2_35 sp2_35 202000.000000
Rwpos2_36 in2_36 sp2_36 202000.000000
Rwpos2_37 in2_37 sp2_37 202000.000000
Rwpos2_38 in2_38 sp2_38 202000.000000
Rwpos2_39 in2_39 sp2_39 78000.000000
Rwpos2_40 in2_40 sp2_40 202000.000000
Rwpos2_41 in2_41 sp2_41 202000.000000
Rwpos2_42 in2_42 sp2_42 202000.000000
Rwpos2_43 in2_43 sp2_43 78000.000000
Rwpos2_44 in2_44 sp2_44 78000.000000
Rwpos2_45 in2_45 sp2_45 78000.000000
Rwpos2_46 in2_46 sp2_46 202000.000000
Rwpos2_47 in2_47 sp2_47 78000.000000
Rwpos2_48 in2_48 sp2_48 202000.000000
Rwpos2_49 in2_49 sp2_49 202000.000000
Rwpos2_50 in2_50 sp2_50 202000.000000
Rwpos2_51 in2_51 sp2_51 202000.000000
Rwpos2_52 in2_52 sp2_52 202000.000000
Rwpos2_53 in2_53 sp2_53 78000.000000
Rwpos2_54 in2_54 sp2_54 202000.000000
Rwpos2_55 in2_55 sp2_55 78000.000000
Rwpos2_56 in2_56 sp2_56 78000.000000
Rwpos2_57 in2_57 sp2_57 78000.000000
Rwpos2_58 in2_58 sp2_58 78000.000000
Rwpos2_59 in2_59 sp2_59 202000.000000
Rwpos2_60 in2_60 sp2_60 78000.000000
Rwpos2_61 in2_61 sp2_61 78000.000000
Rwpos2_62 in2_62 sp2_62 78000.000000
Rwpos2_63 in2_63 sp2_63 78000.000000
Rwpos2_64 in2_64 sp2_64 202000.000000
Rwpos2_65 in2_65 sp2_65 78000.000000
Rwpos2_66 in2_66 sp2_66 202000.000000
Rwpos2_67 in2_67 sp2_67 202000.000000
Rwpos2_68 in2_68 sp2_68 78000.000000
Rwpos2_69 in2_69 sp2_69 78000.000000
Rwpos2_70 in2_70 sp2_70 78000.000000
Rwpos2_71 in2_71 sp2_71 78000.000000
Rwpos2_72 in2_72 sp2_72 78000.000000
Rwpos2_73 in2_73 sp2_73 78000.000000
Rwpos2_74 in2_74 sp2_74 78000.000000
Rwpos2_75 in2_75 sp2_75 202000.000000
Rwpos2_76 in2_76 sp2_76 202000.000000
Rwpos2_77 in2_77 sp2_77 202000.000000
Rwpos2_78 in2_78 sp2_78 202000.000000
Rwpos2_79 in2_79 sp2_79 78000.000000
Rwpos2_80 in2_80 sp2_80 78000.000000
Rwpos2_81 in2_81 sp2_81 78000.000000
Rwpos2_82 in2_82 sp2_82 78000.000000
Rwpos2_83 in2_83 sp2_83 78000.000000
Rwpos2_84 in2_84 sp2_84 78000.000000
Rwpos3_1 in3_1 sp3_1 202000.000000
Rwpos3_2 in3_2 sp3_2 202000.000000
Rwpos3_3 in3_3 sp3_3 202000.000000
Rwpos3_4 in3_4 sp3_4 78000.000000
Rwpos3_5 in3_5 sp3_5 202000.000000
Rwpos3_6 in3_6 sp3_6 78000.000000
Rwpos3_7 in3_7 sp3_7 78000.000000
Rwpos3_8 in3_8 sp3_8 202000.000000
Rwpos3_9 in3_9 sp3_9 202000.000000
Rwpos3_10 in3_10 sp3_10 78000.000000
Rwpos3_11 in3_11 sp3_11 78000.000000
Rwpos3_12 in3_12 sp3_12 78000.000000
Rwpos3_13 in3_13 sp3_13 78000.000000
Rwpos3_14 in3_14 sp3_14 78000.000000
Rwpos3_15 in3_15 sp3_15 78000.000000
Rwpos3_16 in3_16 sp3_16 78000.000000
Rwpos3_17 in3_17 sp3_17 202000.000000
Rwpos3_18 in3_18 sp3_18 78000.000000
Rwpos3_19 in3_19 sp3_19 78000.000000
Rwpos3_20 in3_20 sp3_20 78000.000000
Rwpos3_21 in3_21 sp3_21 202000.000000
Rwpos3_22 in3_22 sp3_22 202000.000000
Rwpos3_23 in3_23 sp3_23 202000.000000
Rwpos3_24 in3_24 sp3_24 78000.000000
Rwpos3_25 in3_25 sp3_25 202000.000000
Rwpos3_26 in3_26 sp3_26 78000.000000
Rwpos3_27 in3_27 sp3_27 78000.000000
Rwpos3_28 in3_28 sp3_28 78000.000000
Rwpos3_29 in3_29 sp3_29 202000.000000
Rwpos3_30 in3_30 sp3_30 202000.000000
Rwpos3_31 in3_31 sp3_31 202000.000000
Rwpos3_32 in3_32 sp3_32 78000.000000
Rwpos3_33 in3_33 sp3_33 202000.000000
Rwpos3_34 in3_34 sp3_34 78000.000000
Rwpos3_35 in3_35 sp3_35 202000.000000
Rwpos3_36 in3_36 sp3_36 78000.000000
Rwpos3_37 in3_37 sp3_37 78000.000000
Rwpos3_38 in3_38 sp3_38 78000.000000
Rwpos3_39 in3_39 sp3_39 78000.000000
Rwpos3_40 in3_40 sp3_40 78000.000000
Rwpos3_41 in3_41 sp3_41 202000.000000
Rwpos3_42 in3_42 sp3_42 202000.000000
Rwpos3_43 in3_43 sp3_43 78000.000000
Rwpos3_44 in3_44 sp3_44 202000.000000
Rwpos3_45 in3_45 sp3_45 78000.000000
Rwpos3_46 in3_46 sp3_46 78000.000000
Rwpos3_47 in3_47 sp3_47 78000.000000
Rwpos3_48 in3_48 sp3_48 202000.000000
Rwpos3_49 in3_49 sp3_49 78000.000000
Rwpos3_50 in3_50 sp3_50 78000.000000
Rwpos3_51 in3_51 sp3_51 78000.000000
Rwpos3_52 in3_52 sp3_52 78000.000000
Rwpos3_53 in3_53 sp3_53 202000.000000
Rwpos3_54 in3_54 sp3_54 78000.000000
Rwpos3_55 in3_55 sp3_55 202000.000000
Rwpos3_56 in3_56 sp3_56 78000.000000
Rwpos3_57 in3_57 sp3_57 78000.000000
Rwpos3_58 in3_58 sp3_58 202000.000000
Rwpos3_59 in3_59 sp3_59 78000.000000
Rwpos3_60 in3_60 sp3_60 78000.000000
Rwpos3_61 in3_61 sp3_61 202000.000000
Rwpos3_62 in3_62 sp3_62 202000.000000
Rwpos3_63 in3_63 sp3_63 78000.000000
Rwpos3_64 in3_64 sp3_64 202000.000000
Rwpos3_65 in3_65 sp3_65 202000.000000
Rwpos3_66 in3_66 sp3_66 202000.000000
Rwpos3_67 in3_67 sp3_67 78000.000000
Rwpos3_68 in3_68 sp3_68 78000.000000
Rwpos3_69 in3_69 sp3_69 78000.000000
Rwpos3_70 in3_70 sp3_70 202000.000000
Rwpos3_71 in3_71 sp3_71 202000.000000
Rwpos3_72 in3_72 sp3_72 78000.000000
Rwpos3_73 in3_73 sp3_73 202000.000000
Rwpos3_74 in3_74 sp3_74 202000.000000
Rwpos3_75 in3_75 sp3_75 78000.000000
Rwpos3_76 in3_76 sp3_76 78000.000000
Rwpos3_77 in3_77 sp3_77 78000.000000
Rwpos3_78 in3_78 sp3_78 78000.000000
Rwpos3_79 in3_79 sp3_79 78000.000000
Rwpos3_80 in3_80 sp3_80 202000.000000
Rwpos3_81 in3_81 sp3_81 202000.000000
Rwpos3_82 in3_82 sp3_82 78000.000000
Rwpos3_83 in3_83 sp3_83 202000.000000
Rwpos3_84 in3_84 sp3_84 202000.000000
Rwpos4_1 in4_1 sp4_1 202000.000000
Rwpos4_2 in4_2 sp4_2 202000.000000
Rwpos4_3 in4_3 sp4_3 202000.000000
Rwpos4_4 in4_4 sp4_4 78000.000000
Rwpos4_5 in4_5 sp4_5 78000.000000
Rwpos4_6 in4_6 sp4_6 78000.000000
Rwpos4_7 in4_7 sp4_7 78000.000000
Rwpos4_8 in4_8 sp4_8 202000.000000
Rwpos4_9 in4_9 sp4_9 78000.000000
Rwpos4_10 in4_10 sp4_10 202000.000000
Rwpos4_11 in4_11 sp4_11 78000.000000
Rwpos4_12 in4_12 sp4_12 202000.000000
Rwpos4_13 in4_13 sp4_13 78000.000000
Rwpos4_14 in4_14 sp4_14 78000.000000
Rwpos4_15 in4_15 sp4_15 78000.000000
Rwpos4_16 in4_16 sp4_16 202000.000000
Rwpos4_17 in4_17 sp4_17 78000.000000
Rwpos4_18 in4_18 sp4_18 78000.000000
Rwpos4_19 in4_19 sp4_19 202000.000000
Rwpos4_20 in4_20 sp4_20 202000.000000
Rwpos4_21 in4_21 sp4_21 78000.000000
Rwpos4_22 in4_22 sp4_22 202000.000000
Rwpos4_23 in4_23 sp4_23 78000.000000
Rwpos4_24 in4_24 sp4_24 78000.000000
Rwpos4_25 in4_25 sp4_25 78000.000000
Rwpos4_26 in4_26 sp4_26 78000.000000
Rwpos4_27 in4_27 sp4_27 78000.000000
Rwpos4_28 in4_28 sp4_28 78000.000000
Rwpos4_29 in4_29 sp4_29 202000.000000
Rwpos4_30 in4_30 sp4_30 78000.000000
Rwpos4_31 in4_31 sp4_31 78000.000000
Rwpos4_32 in4_32 sp4_32 78000.000000
Rwpos4_33 in4_33 sp4_33 202000.000000
Rwpos4_34 in4_34 sp4_34 78000.000000
Rwpos4_35 in4_35 sp4_35 78000.000000
Rwpos4_36 in4_36 sp4_36 202000.000000
Rwpos4_37 in4_37 sp4_37 78000.000000
Rwpos4_38 in4_38 sp4_38 202000.000000
Rwpos4_39 in4_39 sp4_39 78000.000000
Rwpos4_40 in4_40 sp4_40 202000.000000
Rwpos4_41 in4_41 sp4_41 202000.000000
Rwpos4_42 in4_42 sp4_42 78000.000000
Rwpos4_43 in4_43 sp4_43 78000.000000
Rwpos4_44 in4_44 sp4_44 202000.000000
Rwpos4_45 in4_45 sp4_45 202000.000000
Rwpos4_46 in4_46 sp4_46 78000.000000
Rwpos4_47 in4_47 sp4_47 78000.000000
Rwpos4_48 in4_48 sp4_48 202000.000000
Rwpos4_49 in4_49 sp4_49 202000.000000
Rwpos4_50 in4_50 sp4_50 78000.000000
Rwpos4_51 in4_51 sp4_51 78000.000000
Rwpos4_52 in4_52 sp4_52 78000.000000
Rwpos4_53 in4_53 sp4_53 202000.000000
Rwpos4_54 in4_54 sp4_54 78000.000000
Rwpos4_55 in4_55 sp4_55 202000.000000
Rwpos4_56 in4_56 sp4_56 202000.000000
Rwpos4_57 in4_57 sp4_57 202000.000000
Rwpos4_58 in4_58 sp4_58 202000.000000
Rwpos4_59 in4_59 sp4_59 202000.000000
Rwpos4_60 in4_60 sp4_60 78000.000000
Rwpos4_61 in4_61 sp4_61 202000.000000
Rwpos4_62 in4_62 sp4_62 78000.000000
Rwpos4_63 in4_63 sp4_63 202000.000000
Rwpos4_64 in4_64 sp4_64 202000.000000
Rwpos4_65 in4_65 sp4_65 202000.000000
Rwpos4_66 in4_66 sp4_66 202000.000000
Rwpos4_67 in4_67 sp4_67 202000.000000
Rwpos4_68 in4_68 sp4_68 202000.000000
Rwpos4_69 in4_69 sp4_69 202000.000000
Rwpos4_70 in4_70 sp4_70 202000.000000
Rwpos4_71 in4_71 sp4_71 202000.000000
Rwpos4_72 in4_72 sp4_72 202000.000000
Rwpos4_73 in4_73 sp4_73 202000.000000
Rwpos4_74 in4_74 sp4_74 202000.000000
Rwpos4_75 in4_75 sp4_75 202000.000000
Rwpos4_76 in4_76 sp4_76 202000.000000
Rwpos4_77 in4_77 sp4_77 78000.000000
Rwpos4_78 in4_78 sp4_78 78000.000000
Rwpos4_79 in4_79 sp4_79 202000.000000
Rwpos4_80 in4_80 sp4_80 78000.000000
Rwpos4_81 in4_81 sp4_81 78000.000000
Rwpos4_82 in4_82 sp4_82 202000.000000
Rwpos4_83 in4_83 sp4_83 202000.000000
Rwpos4_84 in4_84 sp4_84 202000.000000
Rwpos5_1 in5_1 sp5_1 78000.000000
Rwpos5_2 in5_2 sp5_2 78000.000000
Rwpos5_3 in5_3 sp5_3 202000.000000
Rwpos5_4 in5_4 sp5_4 78000.000000
Rwpos5_5 in5_5 sp5_5 78000.000000
Rwpos5_6 in5_6 sp5_6 78000.000000
Rwpos5_7 in5_7 sp5_7 202000.000000
Rwpos5_8 in5_8 sp5_8 78000.000000
Rwpos5_9 in5_9 sp5_9 78000.000000
Rwpos5_10 in5_10 sp5_10 78000.000000
Rwpos5_11 in5_11 sp5_11 78000.000000
Rwpos5_12 in5_12 sp5_12 78000.000000
Rwpos5_13 in5_13 sp5_13 78000.000000
Rwpos5_14 in5_14 sp5_14 202000.000000
Rwpos5_15 in5_15 sp5_15 78000.000000
Rwpos5_16 in5_16 sp5_16 78000.000000
Rwpos5_17 in5_17 sp5_17 202000.000000
Rwpos5_18 in5_18 sp5_18 78000.000000
Rwpos5_19 in5_19 sp5_19 78000.000000
Rwpos5_20 in5_20 sp5_20 202000.000000
Rwpos5_21 in5_21 sp5_21 202000.000000
Rwpos5_22 in5_22 sp5_22 202000.000000
Rwpos5_23 in5_23 sp5_23 202000.000000
Rwpos5_24 in5_24 sp5_24 78000.000000
Rwpos5_25 in5_25 sp5_25 202000.000000
Rwpos5_26 in5_26 sp5_26 78000.000000
Rwpos5_27 in5_27 sp5_27 78000.000000
Rwpos5_28 in5_28 sp5_28 78000.000000
Rwpos5_29 in5_29 sp5_29 78000.000000
Rwpos5_30 in5_30 sp5_30 78000.000000
Rwpos5_31 in5_31 sp5_31 78000.000000
Rwpos5_32 in5_32 sp5_32 202000.000000
Rwpos5_33 in5_33 sp5_33 202000.000000
Rwpos5_34 in5_34 sp5_34 202000.000000
Rwpos5_35 in5_35 sp5_35 202000.000000
Rwpos5_36 in5_36 sp5_36 202000.000000
Rwpos5_37 in5_37 sp5_37 202000.000000
Rwpos5_38 in5_38 sp5_38 78000.000000
Rwpos5_39 in5_39 sp5_39 202000.000000
Rwpos5_40 in5_40 sp5_40 78000.000000
Rwpos5_41 in5_41 sp5_41 78000.000000
Rwpos5_42 in5_42 sp5_42 78000.000000
Rwpos5_43 in5_43 sp5_43 78000.000000
Rwpos5_44 in5_44 sp5_44 78000.000000
Rwpos5_45 in5_45 sp5_45 202000.000000
Rwpos5_46 in5_46 sp5_46 202000.000000
Rwpos5_47 in5_47 sp5_47 202000.000000
Rwpos5_48 in5_48 sp5_48 202000.000000
Rwpos5_49 in5_49 sp5_49 78000.000000
Rwpos5_50 in5_50 sp5_50 202000.000000
Rwpos5_51 in5_51 sp5_51 78000.000000
Rwpos5_52 in5_52 sp5_52 78000.000000
Rwpos5_53 in5_53 sp5_53 202000.000000
Rwpos5_54 in5_54 sp5_54 78000.000000
Rwpos5_55 in5_55 sp5_55 78000.000000
Rwpos5_56 in5_56 sp5_56 202000.000000
Rwpos5_57 in5_57 sp5_57 202000.000000
Rwpos5_58 in5_58 sp5_58 78000.000000
Rwpos5_59 in5_59 sp5_59 202000.000000
Rwpos5_60 in5_60 sp5_60 78000.000000
Rwpos5_61 in5_61 sp5_61 202000.000000
Rwpos5_62 in5_62 sp5_62 78000.000000
Rwpos5_63 in5_63 sp5_63 202000.000000
Rwpos5_64 in5_64 sp5_64 202000.000000
Rwpos5_65 in5_65 sp5_65 202000.000000
Rwpos5_66 in5_66 sp5_66 78000.000000
Rwpos5_67 in5_67 sp5_67 202000.000000
Rwpos5_68 in5_68 sp5_68 78000.000000
Rwpos5_69 in5_69 sp5_69 202000.000000
Rwpos5_70 in5_70 sp5_70 78000.000000
Rwpos5_71 in5_71 sp5_71 202000.000000
Rwpos5_72 in5_72 sp5_72 202000.000000
Rwpos5_73 in5_73 sp5_73 78000.000000
Rwpos5_74 in5_74 sp5_74 202000.000000
Rwpos5_75 in5_75 sp5_75 202000.000000
Rwpos5_76 in5_76 sp5_76 78000.000000
Rwpos5_77 in5_77 sp5_77 202000.000000
Rwpos5_78 in5_78 sp5_78 78000.000000
Rwpos5_79 in5_79 sp5_79 202000.000000
Rwpos5_80 in5_80 sp5_80 202000.000000
Rwpos5_81 in5_81 sp5_81 202000.000000
Rwpos5_82 in5_82 sp5_82 78000.000000
Rwpos5_83 in5_83 sp5_83 202000.000000
Rwpos5_84 in5_84 sp5_84 78000.000000
Rwpos6_1 in6_1 sp6_1 202000.000000
Rwpos6_2 in6_2 sp6_2 78000.000000
Rwpos6_3 in6_3 sp6_3 202000.000000
Rwpos6_4 in6_4 sp6_4 78000.000000
Rwpos6_5 in6_5 sp6_5 202000.000000
Rwpos6_6 in6_6 sp6_6 78000.000000
Rwpos6_7 in6_7 sp6_7 202000.000000
Rwpos6_8 in6_8 sp6_8 202000.000000
Rwpos6_9 in6_9 sp6_9 78000.000000
Rwpos6_10 in6_10 sp6_10 78000.000000
Rwpos6_11 in6_11 sp6_11 202000.000000
Rwpos6_12 in6_12 sp6_12 78000.000000
Rwpos6_13 in6_13 sp6_13 202000.000000
Rwpos6_14 in6_14 sp6_14 202000.000000
Rwpos6_15 in6_15 sp6_15 202000.000000
Rwpos6_16 in6_16 sp6_16 78000.000000
Rwpos6_17 in6_17 sp6_17 202000.000000
Rwpos6_18 in6_18 sp6_18 202000.000000
Rwpos6_19 in6_19 sp6_19 78000.000000
Rwpos6_20 in6_20 sp6_20 78000.000000
Rwpos6_21 in6_21 sp6_21 202000.000000
Rwpos6_22 in6_22 sp6_22 202000.000000
Rwpos6_23 in6_23 sp6_23 202000.000000
Rwpos6_24 in6_24 sp6_24 202000.000000
Rwpos6_25 in6_25 sp6_25 202000.000000
Rwpos6_26 in6_26 sp6_26 202000.000000
Rwpos6_27 in6_27 sp6_27 202000.000000
Rwpos6_28 in6_28 sp6_28 78000.000000
Rwpos6_29 in6_29 sp6_29 78000.000000
Rwpos6_30 in6_30 sp6_30 78000.000000
Rwpos6_31 in6_31 sp6_31 202000.000000
Rwpos6_32 in6_32 sp6_32 202000.000000
Rwpos6_33 in6_33 sp6_33 78000.000000
Rwpos6_34 in6_34 sp6_34 78000.000000
Rwpos6_35 in6_35 sp6_35 78000.000000
Rwpos6_36 in6_36 sp6_36 202000.000000
Rwpos6_37 in6_37 sp6_37 202000.000000
Rwpos6_38 in6_38 sp6_38 78000.000000
Rwpos6_39 in6_39 sp6_39 202000.000000
Rwpos6_40 in6_40 sp6_40 78000.000000
Rwpos6_41 in6_41 sp6_41 202000.000000
Rwpos6_42 in6_42 sp6_42 202000.000000
Rwpos6_43 in6_43 sp6_43 78000.000000
Rwpos6_44 in6_44 sp6_44 202000.000000
Rwpos6_45 in6_45 sp6_45 78000.000000
Rwpos6_46 in6_46 sp6_46 202000.000000
Rwpos6_47 in6_47 sp6_47 78000.000000
Rwpos6_48 in6_48 sp6_48 202000.000000
Rwpos6_49 in6_49 sp6_49 78000.000000
Rwpos6_50 in6_50 sp6_50 202000.000000
Rwpos6_51 in6_51 sp6_51 202000.000000
Rwpos6_52 in6_52 sp6_52 78000.000000
Rwpos6_53 in6_53 sp6_53 78000.000000
Rwpos6_54 in6_54 sp6_54 202000.000000
Rwpos6_55 in6_55 sp6_55 78000.000000
Rwpos6_56 in6_56 sp6_56 202000.000000
Rwpos6_57 in6_57 sp6_57 202000.000000
Rwpos6_58 in6_58 sp6_58 202000.000000
Rwpos6_59 in6_59 sp6_59 202000.000000
Rwpos6_60 in6_60 sp6_60 78000.000000
Rwpos6_61 in6_61 sp6_61 78000.000000
Rwpos6_62 in6_62 sp6_62 202000.000000
Rwpos6_63 in6_63 sp6_63 78000.000000
Rwpos6_64 in6_64 sp6_64 202000.000000
Rwpos6_65 in6_65 sp6_65 78000.000000
Rwpos6_66 in6_66 sp6_66 202000.000000
Rwpos6_67 in6_67 sp6_67 78000.000000
Rwpos6_68 in6_68 sp6_68 202000.000000
Rwpos6_69 in6_69 sp6_69 202000.000000
Rwpos6_70 in6_70 sp6_70 78000.000000
Rwpos6_71 in6_71 sp6_71 202000.000000
Rwpos6_72 in6_72 sp6_72 78000.000000
Rwpos6_73 in6_73 sp6_73 202000.000000
Rwpos6_74 in6_74 sp6_74 202000.000000
Rwpos6_75 in6_75 sp6_75 78000.000000
Rwpos6_76 in6_76 sp6_76 78000.000000
Rwpos6_77 in6_77 sp6_77 78000.000000
Rwpos6_78 in6_78 sp6_78 78000.000000
Rwpos6_79 in6_79 sp6_79 202000.000000
Rwpos6_80 in6_80 sp6_80 202000.000000
Rwpos6_81 in6_81 sp6_81 202000.000000
Rwpos6_82 in6_82 sp6_82 202000.000000
Rwpos6_83 in6_83 sp6_83 202000.000000
Rwpos6_84 in6_84 sp6_84 202000.000000
Rwpos7_1 in7_1 sp7_1 78000.000000
Rwpos7_2 in7_2 sp7_2 202000.000000
Rwpos7_3 in7_3 sp7_3 202000.000000
Rwpos7_4 in7_4 sp7_4 202000.000000
Rwpos7_5 in7_5 sp7_5 78000.000000
Rwpos7_6 in7_6 sp7_6 78000.000000
Rwpos7_7 in7_7 sp7_7 78000.000000
Rwpos7_8 in7_8 sp7_8 202000.000000
Rwpos7_9 in7_9 sp7_9 78000.000000
Rwpos7_10 in7_10 sp7_10 78000.000000
Rwpos7_11 in7_11 sp7_11 202000.000000
Rwpos7_12 in7_12 sp7_12 78000.000000
Rwpos7_13 in7_13 sp7_13 202000.000000
Rwpos7_14 in7_14 sp7_14 78000.000000
Rwpos7_15 in7_15 sp7_15 202000.000000
Rwpos7_16 in7_16 sp7_16 202000.000000
Rwpos7_17 in7_17 sp7_17 78000.000000
Rwpos7_18 in7_18 sp7_18 78000.000000
Rwpos7_19 in7_19 sp7_19 202000.000000
Rwpos7_20 in7_20 sp7_20 202000.000000
Rwpos7_21 in7_21 sp7_21 202000.000000
Rwpos7_22 in7_22 sp7_22 202000.000000
Rwpos7_23 in7_23 sp7_23 202000.000000
Rwpos7_24 in7_24 sp7_24 78000.000000
Rwpos7_25 in7_25 sp7_25 78000.000000
Rwpos7_26 in7_26 sp7_26 202000.000000
Rwpos7_27 in7_27 sp7_27 78000.000000
Rwpos7_28 in7_28 sp7_28 78000.000000
Rwpos7_29 in7_29 sp7_29 78000.000000
Rwpos7_30 in7_30 sp7_30 78000.000000
Rwpos7_31 in7_31 sp7_31 202000.000000
Rwpos7_32 in7_32 sp7_32 78000.000000
Rwpos7_33 in7_33 sp7_33 202000.000000
Rwpos7_34 in7_34 sp7_34 78000.000000
Rwpos7_35 in7_35 sp7_35 202000.000000
Rwpos7_36 in7_36 sp7_36 78000.000000
Rwpos7_37 in7_37 sp7_37 202000.000000
Rwpos7_38 in7_38 sp7_38 78000.000000
Rwpos7_39 in7_39 sp7_39 78000.000000
Rwpos7_40 in7_40 sp7_40 202000.000000
Rwpos7_41 in7_41 sp7_41 202000.000000
Rwpos7_42 in7_42 sp7_42 78000.000000
Rwpos7_43 in7_43 sp7_43 78000.000000
Rwpos7_44 in7_44 sp7_44 78000.000000
Rwpos7_45 in7_45 sp7_45 202000.000000
Rwpos7_46 in7_46 sp7_46 78000.000000
Rwpos7_47 in7_47 sp7_47 78000.000000
Rwpos7_48 in7_48 sp7_48 202000.000000
Rwpos7_49 in7_49 sp7_49 78000.000000
Rwpos7_50 in7_50 sp7_50 202000.000000
Rwpos7_51 in7_51 sp7_51 202000.000000
Rwpos7_52 in7_52 sp7_52 78000.000000
Rwpos7_53 in7_53 sp7_53 78000.000000
Rwpos7_54 in7_54 sp7_54 202000.000000
Rwpos7_55 in7_55 sp7_55 202000.000000
Rwpos7_56 in7_56 sp7_56 202000.000000
Rwpos7_57 in7_57 sp7_57 202000.000000
Rwpos7_58 in7_58 sp7_58 202000.000000
Rwpos7_59 in7_59 sp7_59 202000.000000
Rwpos7_60 in7_60 sp7_60 78000.000000
Rwpos7_61 in7_61 sp7_61 202000.000000
Rwpos7_62 in7_62 sp7_62 78000.000000
Rwpos7_63 in7_63 sp7_63 78000.000000
Rwpos7_64 in7_64 sp7_64 78000.000000
Rwpos7_65 in7_65 sp7_65 78000.000000
Rwpos7_66 in7_66 sp7_66 78000.000000
Rwpos7_67 in7_67 sp7_67 78000.000000
Rwpos7_68 in7_68 sp7_68 78000.000000
Rwpos7_69 in7_69 sp7_69 78000.000000
Rwpos7_70 in7_70 sp7_70 78000.000000
Rwpos7_71 in7_71 sp7_71 78000.000000
Rwpos7_72 in7_72 sp7_72 78000.000000
Rwpos7_73 in7_73 sp7_73 202000.000000
Rwpos7_74 in7_74 sp7_74 78000.000000
Rwpos7_75 in7_75 sp7_75 202000.000000
Rwpos7_76 in7_76 sp7_76 78000.000000
Rwpos7_77 in7_77 sp7_77 78000.000000
Rwpos7_78 in7_78 sp7_78 78000.000000
Rwpos7_79 in7_79 sp7_79 78000.000000
Rwpos7_80 in7_80 sp7_80 202000.000000
Rwpos7_81 in7_81 sp7_81 202000.000000
Rwpos7_82 in7_82 sp7_82 78000.000000
Rwpos7_83 in7_83 sp7_83 202000.000000
Rwpos7_84 in7_84 sp7_84 202000.000000
Rwpos8_1 in8_1 sp8_1 202000.000000
Rwpos8_2 in8_2 sp8_2 78000.000000
Rwpos8_3 in8_3 sp8_3 78000.000000
Rwpos8_4 in8_4 sp8_4 202000.000000
Rwpos8_5 in8_5 sp8_5 202000.000000
Rwpos8_6 in8_6 sp8_6 78000.000000
Rwpos8_7 in8_7 sp8_7 78000.000000
Rwpos8_8 in8_8 sp8_8 202000.000000
Rwpos8_9 in8_9 sp8_9 202000.000000
Rwpos8_10 in8_10 sp8_10 202000.000000
Rwpos8_11 in8_11 sp8_11 202000.000000
Rwpos8_12 in8_12 sp8_12 202000.000000
Rwpos8_13 in8_13 sp8_13 202000.000000
Rwpos8_14 in8_14 sp8_14 78000.000000
Rwpos8_15 in8_15 sp8_15 202000.000000
Rwpos8_16 in8_16 sp8_16 202000.000000
Rwpos8_17 in8_17 sp8_17 78000.000000
Rwpos8_18 in8_18 sp8_18 202000.000000
Rwpos8_19 in8_19 sp8_19 202000.000000
Rwpos8_20 in8_20 sp8_20 202000.000000
Rwpos8_21 in8_21 sp8_21 202000.000000
Rwpos8_22 in8_22 sp8_22 202000.000000
Rwpos8_23 in8_23 sp8_23 78000.000000
Rwpos8_24 in8_24 sp8_24 78000.000000
Rwpos8_25 in8_25 sp8_25 202000.000000
Rwpos8_26 in8_26 sp8_26 78000.000000
Rwpos8_27 in8_27 sp8_27 202000.000000
Rwpos8_28 in8_28 sp8_28 202000.000000
Rwpos8_29 in8_29 sp8_29 202000.000000
Rwpos8_30 in8_30 sp8_30 78000.000000
Rwpos8_31 in8_31 sp8_31 78000.000000
Rwpos8_32 in8_32 sp8_32 202000.000000
Rwpos8_33 in8_33 sp8_33 78000.000000
Rwpos8_34 in8_34 sp8_34 202000.000000
Rwpos8_35 in8_35 sp8_35 202000.000000
Rwpos8_36 in8_36 sp8_36 202000.000000
Rwpos8_37 in8_37 sp8_37 78000.000000
Rwpos8_38 in8_38 sp8_38 202000.000000
Rwpos8_39 in8_39 sp8_39 202000.000000
Rwpos8_40 in8_40 sp8_40 78000.000000
Rwpos8_41 in8_41 sp8_41 78000.000000
Rwpos8_42 in8_42 sp8_42 78000.000000
Rwpos8_43 in8_43 sp8_43 78000.000000
Rwpos8_44 in8_44 sp8_44 78000.000000
Rwpos8_45 in8_45 sp8_45 202000.000000
Rwpos8_46 in8_46 sp8_46 78000.000000
Rwpos8_47 in8_47 sp8_47 78000.000000
Rwpos8_48 in8_48 sp8_48 202000.000000
Rwpos8_49 in8_49 sp8_49 78000.000000
Rwpos8_50 in8_50 sp8_50 202000.000000
Rwpos8_51 in8_51 sp8_51 78000.000000
Rwpos8_52 in8_52 sp8_52 202000.000000
Rwpos8_53 in8_53 sp8_53 202000.000000
Rwpos8_54 in8_54 sp8_54 202000.000000
Rwpos8_55 in8_55 sp8_55 202000.000000
Rwpos8_56 in8_56 sp8_56 202000.000000
Rwpos8_57 in8_57 sp8_57 78000.000000
Rwpos8_58 in8_58 sp8_58 78000.000000
Rwpos8_59 in8_59 sp8_59 78000.000000
Rwpos8_60 in8_60 sp8_60 78000.000000
Rwpos8_61 in8_61 sp8_61 78000.000000
Rwpos8_62 in8_62 sp8_62 202000.000000
Rwpos8_63 in8_63 sp8_63 202000.000000
Rwpos8_64 in8_64 sp8_64 202000.000000
Rwpos8_65 in8_65 sp8_65 78000.000000
Rwpos8_66 in8_66 sp8_66 202000.000000
Rwpos8_67 in8_67 sp8_67 78000.000000
Rwpos8_68 in8_68 sp8_68 202000.000000
Rwpos8_69 in8_69 sp8_69 78000.000000
Rwpos8_70 in8_70 sp8_70 202000.000000
Rwpos8_71 in8_71 sp8_71 202000.000000
Rwpos8_72 in8_72 sp8_72 78000.000000
Rwpos8_73 in8_73 sp8_73 78000.000000
Rwpos8_74 in8_74 sp8_74 202000.000000
Rwpos8_75 in8_75 sp8_75 78000.000000
Rwpos8_76 in8_76 sp8_76 202000.000000
Rwpos8_77 in8_77 sp8_77 78000.000000
Rwpos8_78 in8_78 sp8_78 202000.000000
Rwpos8_79 in8_79 sp8_79 78000.000000
Rwpos8_80 in8_80 sp8_80 202000.000000
Rwpos8_81 in8_81 sp8_81 78000.000000
Rwpos8_82 in8_82 sp8_82 202000.000000
Rwpos8_83 in8_83 sp8_83 78000.000000
Rwpos8_84 in8_84 sp8_84 202000.000000
Rwpos9_1 in9_1 sp9_1 78000.000000
Rwpos9_2 in9_2 sp9_2 78000.000000
Rwpos9_3 in9_3 sp9_3 78000.000000
Rwpos9_4 in9_4 sp9_4 78000.000000
Rwpos9_5 in9_5 sp9_5 202000.000000
Rwpos9_6 in9_6 sp9_6 78000.000000
Rwpos9_7 in9_7 sp9_7 78000.000000
Rwpos9_8 in9_8 sp9_8 202000.000000
Rwpos9_9 in9_9 sp9_9 78000.000000
Rwpos9_10 in9_10 sp9_10 78000.000000
Rwpos9_11 in9_11 sp9_11 78000.000000
Rwpos9_12 in9_12 sp9_12 78000.000000
Rwpos9_13 in9_13 sp9_13 202000.000000
Rwpos9_14 in9_14 sp9_14 202000.000000
Rwpos9_15 in9_15 sp9_15 78000.000000
Rwpos9_16 in9_16 sp9_16 202000.000000
Rwpos9_17 in9_17 sp9_17 202000.000000
Rwpos9_18 in9_18 sp9_18 202000.000000
Rwpos9_19 in9_19 sp9_19 202000.000000
Rwpos9_20 in9_20 sp9_20 78000.000000
Rwpos9_21 in9_21 sp9_21 78000.000000
Rwpos9_22 in9_22 sp9_22 78000.000000
Rwpos9_23 in9_23 sp9_23 202000.000000
Rwpos9_24 in9_24 sp9_24 78000.000000
Rwpos9_25 in9_25 sp9_25 78000.000000
Rwpos9_26 in9_26 sp9_26 78000.000000
Rwpos9_27 in9_27 sp9_27 202000.000000
Rwpos9_28 in9_28 sp9_28 202000.000000
Rwpos9_29 in9_29 sp9_29 202000.000000
Rwpos9_30 in9_30 sp9_30 78000.000000
Rwpos9_31 in9_31 sp9_31 78000.000000
Rwpos9_32 in9_32 sp9_32 78000.000000
Rwpos9_33 in9_33 sp9_33 78000.000000
Rwpos9_34 in9_34 sp9_34 202000.000000
Rwpos9_35 in9_35 sp9_35 78000.000000
Rwpos9_36 in9_36 sp9_36 78000.000000
Rwpos9_37 in9_37 sp9_37 78000.000000
Rwpos9_38 in9_38 sp9_38 78000.000000
Rwpos9_39 in9_39 sp9_39 202000.000000
Rwpos9_40 in9_40 sp9_40 202000.000000
Rwpos9_41 in9_41 sp9_41 78000.000000
Rwpos9_42 in9_42 sp9_42 78000.000000
Rwpos9_43 in9_43 sp9_43 78000.000000
Rwpos9_44 in9_44 sp9_44 202000.000000
Rwpos9_45 in9_45 sp9_45 78000.000000
Rwpos9_46 in9_46 sp9_46 78000.000000
Rwpos9_47 in9_47 sp9_47 202000.000000
Rwpos9_48 in9_48 sp9_48 78000.000000
Rwpos9_49 in9_49 sp9_49 78000.000000
Rwpos9_50 in9_50 sp9_50 78000.000000
Rwpos9_51 in9_51 sp9_51 202000.000000
Rwpos9_52 in9_52 sp9_52 78000.000000
Rwpos9_53 in9_53 sp9_53 78000.000000
Rwpos9_54 in9_54 sp9_54 202000.000000
Rwpos9_55 in9_55 sp9_55 202000.000000
Rwpos9_56 in9_56 sp9_56 78000.000000
Rwpos9_57 in9_57 sp9_57 78000.000000
Rwpos9_58 in9_58 sp9_58 202000.000000
Rwpos9_59 in9_59 sp9_59 78000.000000
Rwpos9_60 in9_60 sp9_60 78000.000000
Rwpos9_61 in9_61 sp9_61 78000.000000
Rwpos9_62 in9_62 sp9_62 202000.000000
Rwpos9_63 in9_63 sp9_63 78000.000000
Rwpos9_64 in9_64 sp9_64 202000.000000
Rwpos9_65 in9_65 sp9_65 78000.000000
Rwpos9_66 in9_66 sp9_66 78000.000000
Rwpos9_67 in9_67 sp9_67 202000.000000
Rwpos9_68 in9_68 sp9_68 202000.000000
Rwpos9_69 in9_69 sp9_69 202000.000000
Rwpos9_70 in9_70 sp9_70 78000.000000
Rwpos9_71 in9_71 sp9_71 78000.000000
Rwpos9_72 in9_72 sp9_72 78000.000000
Rwpos9_73 in9_73 sp9_73 78000.000000
Rwpos9_74 in9_74 sp9_74 78000.000000
Rwpos9_75 in9_75 sp9_75 78000.000000
Rwpos9_76 in9_76 sp9_76 78000.000000
Rwpos9_77 in9_77 sp9_77 202000.000000
Rwpos9_78 in9_78 sp9_78 78000.000000
Rwpos9_79 in9_79 sp9_79 78000.000000
Rwpos9_80 in9_80 sp9_80 202000.000000
Rwpos9_81 in9_81 sp9_81 202000.000000
Rwpos9_82 in9_82 sp9_82 78000.000000
Rwpos9_83 in9_83 sp9_83 202000.000000
Rwpos9_84 in9_84 sp9_84 78000.000000
Rwpos10_1 in10_1 sp10_1 78000.000000
Rwpos10_2 in10_2 sp10_2 202000.000000
Rwpos10_3 in10_3 sp10_3 202000.000000
Rwpos10_4 in10_4 sp10_4 78000.000000
Rwpos10_5 in10_5 sp10_5 202000.000000
Rwpos10_6 in10_6 sp10_6 78000.000000
Rwpos10_7 in10_7 sp10_7 78000.000000
Rwpos10_8 in10_8 sp10_8 202000.000000
Rwpos10_9 in10_9 sp10_9 78000.000000
Rwpos10_10 in10_10 sp10_10 202000.000000
Rwpos10_11 in10_11 sp10_11 78000.000000
Rwpos10_12 in10_12 sp10_12 202000.000000
Rwpos10_13 in10_13 sp10_13 78000.000000
Rwpos10_14 in10_14 sp10_14 78000.000000
Rwpos10_15 in10_15 sp10_15 202000.000000
Rwpos10_16 in10_16 sp10_16 78000.000000
Rwpos10_17 in10_17 sp10_17 78000.000000
Rwpos10_18 in10_18 sp10_18 202000.000000