.SUBCKT layer3 vdd vss 0 in1 in2 in3 in4 in5 in6 in7 in8 in9 in10 in11 in12 in13 in14 in15 in16 in17 in18 in19 in20 in21 in22 in23 in24 in25 in26 in27 in28 in29 in30 in31 in32 in33 in34 in35 in36 in37 in38 in39 in40 in41 in42 in43 in44 in45 in46 in47 in48 in49 in50 in51 in52 in53 in54 in55 in56 in57 in58 in59 in60 in61 in62 in63 in64 in65 in66 in67 in68 in69 in70 in71 in72 in73 in74 in75 in76 in77 in78 in79 in80 in81 in82 in83 in84 out1 out2 out3 out4 out5 out6 out7 out8 out9 out10 

**********Positive Weighted Array**********
Rwpos1_1 in1_1 sp1_1 78000.000000
Rwpos1_2 in1_2 sp1_2 202000.000000
Rwpos1_3 in1_3 sp1_3 202000.000000
Rwpos1_4 in1_4 sp1_4 202000.000000
Rwpos1_5 in1_5 sp1_5 78000.000000
Rwpos1_6 in1_6 sp1_6 202000.000000
Rwpos1_7 in1_7 sp1_7 202000.000000
Rwpos1_8 in1_8 sp1_8 202000.000000
Rwpos1_9 in1_9 sp1_9 78000.000000
Rwpos1_10 in1_10 sp1_10 78000.000000
Rwpos2_1 in2_1 sp2_1 202000.000000
Rwpos2_2 in2_2 sp2_2 78000.000000
Rwpos2_3 in2_3 sp2_3 78000.000000
Rwpos2_4 in2_4 sp2_4 202000.000000
Rwpos2_5 in2_5 sp2_5 202000.000000
Rwpos2_6 in2_6 sp2_6 78000.000000
Rwpos2_7 in2_7 sp2_7 78000.000000
Rwpos2_8 in2_8 sp2_8 78000.000000
Rwpos2_9 in2_9 sp2_9 202000.000000
Rwpos2_10 in2_10 sp2_10 202000.000000
Rwpos3_1 in3_1 sp3_1 78000.000000
Rwpos3_2 in3_2 sp3_2 78000.000000
Rwpos3_3 in3_3 sp3_3 78000.000000
Rwpos3_4 in3_4 sp3_4 78000.000000
Rwpos3_5 in3_5 sp3_5 202000.000000
Rwpos3_6 in3_6 sp3_6 202000.000000
Rwpos3_7 in3_7 sp3_7 202000.000000
Rwpos3_8 in3_8 sp3_8 78000.000000
Rwpos3_9 in3_9 sp3_9 78000.000000
Rwpos3_10 in3_10 sp3_10 78000.000000
Rwpos4_1 in4_1 sp4_1 78000.000000
Rwpos4_2 in4_2 sp4_2 202000.000000
Rwpos4_3 in4_3 sp4_3 78000.000000
Rwpos4_4 in4_4 sp4_4 202000.000000
Rwpos4_5 in4_5 sp4_5 78000.000000
Rwpos4_6 in4_6 sp4_6 202000.000000
Rwpos4_7 in4_7 sp4_7 78000.000000
Rwpos4_8 in4_8 sp4_8 78000.000000
Rwpos4_9 in4_9 sp4_9 78000.000000
Rwpos4_10 in4_10 sp4_10 202000.000000
Rwpos5_1 in5_1 sp5_1 78000.000000
Rwpos5_2 in5_2 sp5_2 202000.000000
Rwpos5_3 in5_3 sp5_3 78000.000000
Rwpos5_4 in5_4 sp5_4 78000.000000
Rwpos5_5 in5_5 sp5_5 202000.000000
Rwpos5_6 in5_6 sp5_6 202000.000000
Rwpos5_7 in5_7 sp5_7 78000.000000
Rwpos5_8 in5_8 sp5_8 78000.000000
Rwpos5_9 in5_9 sp5_9 78000.000000
Rwpos5_10 in5_10 sp5_10 202000.000000
Rwpos6_1 in6_1 sp6_1 202000.000000
Rwpos6_2 in6_2 sp6_2 78000.000000
Rwpos6_3 in6_3 sp6_3 78000.000000
Rwpos6_4 in6_4 sp6_4 78000.000000
Rwpos6_5 in6_5 sp6_5 78000.000000
Rwpos6_6 in6_6 sp6_6 78000.000000
Rwpos6_7 in6_7 sp6_7 78000.000000
Rwpos6_8 in6_8 sp6_8 202000.000000
Rwpos6_9 in6_9 sp6_9 202000.000000
Rwpos6_10 in6_10 sp6_10 78000.000000
Rwpos7_1 in7_1 sp7_1 78000.000000
Rwpos7_2 in7_2 sp7_2 78000.000000
Rwpos7_3 in7_3 sp7_3 202000.000000
Rwpos7_4 in7_4 sp7_4 202000.000000
Rwpos7_5 in7_5 sp7_5 78000.000000
Rwpos7_6 in7_6 sp7_6 202000.000000
Rwpos7_7 in7_7 sp7_7 78000.000000
Rwpos7_8 in7_8 sp7_8 78000.000000
Rwpos7_9 in7_9 sp7_9 202000.000000
Rwpos7_10 in7_10 sp7_10 202000.000000
Rwpos8_1 in8_1 sp8_1 202000.000000
Rwpos8_2 in8_2 sp8_2 202000.000000
Rwpos8_3 in8_3 sp8_3 78000.000000
Rwpos8_4 in8_4 sp8_4 202000.000000
Rwpos8_5 in8_5 sp8_5 202000.000000
Rwpos8_6 in8_6 sp8_6 78000.000000
Rwpos8_7 in8_7 sp8_7 78000.000000
Rwpos8_8 in8_8 sp8_8 78000.000000
Rwpos8_9 in8_9 sp8_9 78000.000000
Rwpos8_10 in8_10 sp8_10 78000.000000
Rwpos9_1 in9_1 sp9_1 202000.000000
Rwpos9_2 in9_2 sp9_2 202000.000000
Rwpos9_3 in9_3 sp9_3 78000.000000
Rwpos9_4 in9_4 sp9_4 202000.000000
Rwpos9_5 in9_5 sp9_5 78000.000000
Rwpos9_6 in9_6 sp9_6 78000.000000
Rwpos9_7 in9_7 sp9_7 202000.000000
Rwpos9_8 in9_8 sp9_8 78000.000000
Rwpos9_9 in9_9 sp9_9 78000.000000
Rwpos9_10 in9_10 sp9_10 78000.000000
Rwpos10_1 in10_1 sp10_1 202000.000000
Rwpos10_2 in10_2 sp10_2 78000.000000
Rwpos10_3 in10_3 sp10_3 78000.000000
Rwpos10_4 in10_4 sp10_4 78000.000000
Rwpos10_5 in10_5 sp10_5 78000.000000
Rwpos10_6 in10_6 sp10_6 78000.000000
Rwpos10_7 in10_7 sp10_7 202000.000000
Rwpos10_8 in10_8 sp10_8 202000.000000
Rwpos10_9 in10_9 sp10_9 78000.000000
Rwpos10_10 in10_10 sp10_10 78000.000000
Rwpos11_1 in11_1 sp11_1 78000.000000
Rwpos11_2 in11_2 sp11_2 78000.000000
Rwpos11_3 in11_3 sp11_3 202000.000000
Rwpos11_4 in11_4 sp11_4 78000.000000
Rwpos11_5 in11_5 sp11_5 78000.000000
Rwpos11_6 in11_6 sp11_6 78000.000000
Rwpos11_7 in11_7 sp11_7 202000.000000
Rwpos11_8 in11_8 sp11_8 78000.000000
Rwpos11_9 in11_9 sp11_9 78000.000000
Rwpos11_10 in11_10 sp11_10 202000.000000
Rwpos12_1 in12_1 sp12_1 202000.000000
Rwpos12_2 in12_2 sp12_2 202000.000000
Rwpos12_3 in12_3 sp12_3 78000.000000
Rwpos12_4 in12_4 sp12_4 202000.000000
Rwpos12_5 in12_5 sp12_5 78000.000000
Rwpos12_6 in12_6 sp12_6 78000.000000
Rwpos12_7 in12_7 sp12_7 78000.000000
Rwpos12_8 in12_8 sp12_8 202000.000000
Rwpos12_9 in12_9 sp12_9 78000.000000
Rwpos12_10 in12_10 sp12_10 78000.000000
Rwpos13_1 in13_1 sp13_1 78000.000000
Rwpos13_2 in13_2 sp13_2 202000.000000
Rwpos13_3 in13_3 sp13_3 78000.000000
Rwpos13_4 in13_4 sp13_4 78000.000000
Rwpos13_5 in13_5 sp13_5 202000.000000
Rwpos13_6 in13_6 sp13_6 78000.000000
Rwpos13_7 in13_7 sp13_7 78000.000000
Rwpos13_8 in13_8 sp13_8 202000.000000
Rwpos13_9 in13_9 sp13_9 78000.000000
Rwpos13_10 in13_10 sp13_10 202000.000000
Rwpos14_1 in14_1 sp14_1 202000.000000
Rwpos14_2 in14_2 sp14_2 78000.000000
Rwpos14_3 in14_3 sp14_3 78000.000000
Rwpos14_4 in14_4 sp14_4 78000.000000
Rwpos14_5 in14_5 sp14_5 202000.000000
Rwpos14_6 in14_6 sp14_6 202000.000000
Rwpos14_7 in14_7 sp14_7 78000.000000
Rwpos14_8 in14_8 sp14_8 78000.000000
Rwpos14_9 in14_9 sp14_9 78000.000000
Rwpos14_10 in14_10 sp14_10 78000.000000
Rwpos15_1 in15_1 sp15_1 202000.000000
Rwpos15_2 in15_2 sp15_2 78000.000000
Rwpos15_3 in15_3 sp15_3 202000.000000
Rwpos15_4 in15_4 sp15_4 78000.000000
Rwpos15_5 in15_5 sp15_5 78000.000000
Rwpos15_6 in15_6 sp15_6 202000.000000
Rwpos15_7 in15_7 sp15_7 78000.000000
Rwpos15_8 in15_8 sp15_8 202000.000000
Rwpos15_9 in15_9 sp15_9 78000.000000
Rwpos15_10 in15_10 sp15_10 202000.000000
Rwpos16_1 in16_1 sp16_1 202000.000000
Rwpos16_2 in16_2 sp16_2 202000.000000
Rwpos16_3 in16_3 sp16_3 78000.000000
Rwpos16_4 in16_4 sp16_4 202000.000000
Rwpos16_5 in16_5 sp16_5 78000.000000
Rwpos16_6 in16_6 sp16_6 78000.000000
Rwpos16_7 in16_7 sp16_7 78000.000000
Rwpos16_8 in16_8 sp16_8 78000.000000
Rwpos16_9 in16_9 sp16_9 78000.000000
Rwpos16_10 in16_10 sp16_10 202000.000000
Rwpos17_1 in17_1 sp17_1 202000.000000
Rwpos17_2 in17_2 sp17_2 78000.000000
Rwpos17_3 in17_3 sp17_3 202000.000000
Rwpos17_4 in17_4 sp17_4 78000.000000
Rwpos17_5 in17_5 sp17_5 78000.000000
Rwpos17_6 in17_6 sp17_6 78000.000000
Rwpos17_7 in17_7 sp17_7 202000.000000
Rwpos17_8 in17_8 sp17_8 78000.000000
Rwpos17_9 in17_9 sp17_9 202000.000000
Rwpos17_10 in17_10 sp17_10 78000.000000
Rwpos18_1 in18_1 sp18_1 78000.000000
Rwpos18_2 in18_2 sp18_2 202000.000000
Rwpos18_3 in18_3 sp18_3 78000.000000
Rwpos18_4 in18_4 sp18_4 78000.000000
Rwpos18_5 in18_5 sp18_5 202000.000000
Rwpos18_6 in18_6 sp18_6 78000.000000
Rwpos18_7 in18_7 sp18_7 78000.000000
Rwpos18_8 in18_8 sp18_8 202000.000000
Rwpos18_9 in18_9 sp18_9 78000.000000
Rwpos18_10 in18_10 sp18_10 78000.000000
Rwpos19_1 in19_1 sp19_1 202000.000000
Rwpos19_2 in19_2 sp19_2 78000.000000
Rwpos19_3 in19_3 sp19_3 78000.000000
Rwpos19_4 in19_4 sp19_4 78000.000000
Rwpos19_5 in19_5 sp19_5 78000.000000
Rwpos19_6 in19_6 sp19_6 78000.000000
Rwpos19_7 in19_7 sp19_7 78000.000000
Rwpos19_8 in19_8 sp19_8 202000.000000
Rwpos19_9 in19_9 sp19_9 78000.000000
Rwpos19_10 in19_10 sp19_10 202000.000000
Rwpos20_1 in20_1 sp20_1 78000.000000
Rwpos20_2 in20_2 sp20_2 78000.000000
Rwpos20_3 in20_3 sp20_3 78000.000000
Rwpos20_4 in20_4 sp20_4 78000.000000
Rwpos20_5 in20_5 sp20_5 202000.000000
Rwpos20_6 in20_6 sp20_6 78000.000000
Rwpos20_7 in20_7 sp20_7 78000.000000
Rwpos20_8 in20_8 sp20_8 202000.000000
Rwpos20_9 in20_9 sp20_9 78000.000000
Rwpos20_10 in20_10 sp20_10 202000.000000
Rwpos21_1 in21_1 sp21_1 202000.000000
Rwpos21_2 in21_2 sp21_2 202000.000000
Rwpos21_3 in21_3 sp21_3 78000.000000
Rwpos21_4 in21_4 sp21_4 78000.000000
Rwpos21_5 in21_5 sp21_5 78000.000000
Rwpos21_6 in21_6 sp21_6 78000.000000
Rwpos21_7 in21_7 sp21_7 78000.000000
Rwpos21_8 in21_8 sp21_8 78000.000000
Rwpos21_9 in21_9 sp21_9 78000.000000
Rwpos21_10 in21_10 sp21_10 78000.000000
Rwpos22_1 in22_1 sp22_1 202000.000000
Rwpos22_2 in22_2 sp22_2 202000.000000
Rwpos22_3 in22_3 sp22_3 78000.000000
Rwpos22_4 in22_4 sp22_4 78000.000000
Rwpos22_5 in22_5 sp22_5 78000.000000
Rwpos22_6 in22_6 sp22_6 78000.000000
Rwpos22_7 in22_7 sp22_7 202000.000000
Rwpos22_8 in22_8 sp22_8 78000.000000
Rwpos22_9 in22_9 sp22_9 78000.000000
Rwpos22_10 in22_10 sp22_10 78000.000000
Rwpos23_1 in23_1 sp23_1 202000.000000
Rwpos23_2 in23_2 sp23_2 78000.000000
Rwpos23_3 in23_3 sp23_3 202000.000000
Rwpos23_4 in23_4 sp23_4 78000.000000
Rwpos23_5 in23_5 sp23_5 202000.000000
Rwpos23_6 in23_6 sp23_6 78000.000000
Rwpos23_7 in23_7 sp23_7 78000.000000
Rwpos23_8 in23_8 sp23_8 78000.000000
Rwpos23_9 in23_9 sp23_9 78000.000000
Rwpos23_10 in23_10 sp23_10 78000.000000
Rwpos24_1 in24_1 sp24_1 78000.000000
Rwpos24_2 in24_2 sp24_2 78000.000000
Rwpos24_3 in24_3 sp24_3 78000.000000
Rwpos24_4 in24_4 sp24_4 78000.000000
Rwpos24_5 in24_5 sp24_5 78000.000000
Rwpos24_6 in24_6 sp24_6 78000.000000
Rwpos24_7 in24_7 sp24_7 202000.000000
Rwpos24_8 in24_8 sp24_8 202000.000000
Rwpos24_9 in24_9 sp24_9 202000.000000
Rwpos24_10 in24_10 sp24_10 78000.000000
Rwpos25_1 in25_1 sp25_1 202000.000000
Rwpos25_2 in25_2 sp25_2 78000.000000
Rwpos25_3 in25_3 sp25_3 78000.000000
Rwpos25_4 in25_4 sp25_4 78000.000000
Rwpos25_5 in25_5 sp25_5 78000.000000
Rwpos25_6 in25_6 sp25_6 202000.000000
Rwpos25_7 in25_7 sp25_7 78000.000000
Rwpos25_8 in25_8 sp25_8 78000.000000
Rwpos25_9 in25_9 sp25_9 202000.000000
Rwpos25_10 in25_10 sp25_10 78000.000000
Rwpos26_1 in26_1 sp26_1 78000.000000
Rwpos26_2 in26_2 sp26_2 78000.000000
Rwpos26_3 in26_3 sp26_3 202000.000000
Rwpos26_4 in26_4 sp26_4 78000.000000
Rwpos26_5 in26_5 sp26_5 202000.000000
Rwpos26_6 in26_6 sp26_6 202000.000000
Rwpos26_7 in26_7 sp26_7 78000.000000
Rwpos26_8 in26_8 sp26_8 78000.000000
Rwpos26_9 in26_9 sp26_9 78000.000000
Rwpos26_10 in26_10 sp26_10 78000.000000
Rwpos27_1 in27_1 sp27_1 202000.000000
Rwpos27_2 in27_2 sp27_2 202000.000000
Rwpos27_3 in27_3 sp27_3 78000.000000
Rwpos27_4 in27_4 sp27_4 78000.000000
Rwpos27_5 in27_5 sp27_5 78000.000000
Rwpos27_6 in27_6 sp27_6 202000.000000
Rwpos27_7 in27_7 sp27_7 78000.000000
Rwpos27_8 in27_8 sp27_8 78000.000000
Rwpos27_9 in27_9 sp27_9 78000.000000
Rwpos27_10 in27_10 sp27_10 78000.000000
Rwpos28_1 in28_1 sp28_1 78000.000000
Rwpos28_2 in28_2 sp28_2 202000.000000
Rwpos28_3 in28_3 sp28_3 78000.000000
Rwpos28_4 in28_4 sp28_4 78000.000000
Rwpos28_5 in28_5 sp28_5 78000.000000
Rwpos28_6 in28_6 sp28_6 78000.000000
Rwpos28_7 in28_7 sp28_7 78000.000000
Rwpos28_8 in28_8 sp28_8 202000.000000
Rwpos28_9 in28_9 sp28_9 78000.000000
Rwpos28_10 in28_10 sp28_10 202000.000000
Rwpos29_1 in29_1 sp29_1 78000.000000
Rwpos29_2 in29_2 sp29_2 78000.000000
Rwpos29_3 in29_3 sp29_3 78000.000000
Rwpos29_4 in29_4 sp29_4 78000.000000
Rwpos29_5 in29_5 sp29_5 202000.000000
Rwpos29_6 in29_6 sp29_6 78000.000000
Rwpos29_7 in29_7 sp29_7 78000.000000
Rwpos29_8 in29_8 sp29_8 78000.000000
Rwpos29_9 in29_9 sp29_9 202000.000000
Rwpos29_10 in29_10 sp29_10 78000.000000
Rwpos30_1 in30_1 sp30_1 78000.000000
Rwpos30_2 in30_2 sp30_2 202000.000000
Rwpos30_3 in30_3 sp30_3 202000.000000
Rwpos30_4 in30_4 sp30_4 202000.000000
Rwpos30_5 in30_5 sp30_5 78000.000000
Rwpos30_6 in30_6 sp30_6 202000.000000
Rwpos30_7 in30_7 sp30_7 78000.000000
Rwpos30_8 in30_8 sp30_8 202000.000000
Rwpos30_9 in30_9 sp30_9 78000.000000
Rwpos30_10 in30_10 sp30_10 78000.000000
Rwpos31_1 in31_1 sp31_1 202000.000000
Rwpos31_2 in31_2 sp31_2 202000.000000
Rwpos31_3 in31_3 sp31_3 202000.000000
Rwpos31_4 in31_4 sp31_4 78000.000000
Rwpos31_5 in31_5 sp31_5 78000.000000
Rwpos31_6 in31_6 sp31_6 202000.000000
Rwpos31_7 in31_7 sp31_7 202000.000000
Rwpos31_8 in31_8 sp31_8 78000.000000
Rwpos31_9 in31_9 sp31_9 78000.000000
Rwpos31_10 in31_10 sp31_10 78000.000000
Rwpos32_1 in32_1 sp32_1 202000.000000
Rwpos32_2 in32_2 sp32_2 78000.000000
Rwpos32_3 in32_3 sp32_3 202000.000000
Rwpos32_4 in32_4 sp32_4 78000.000000
Rwpos32_5 in32_5 sp32_5 78000.000000
Rwpos32_6 in32_6 sp32_6 78000.000000
Rwpos32_7 in32_7 sp32_7 78000.000000
Rwpos32_8 in32_8 sp32_8 202000.000000
Rwpos32_9 in32_9 sp32_9 78000.000000
Rwpos32_10 in32_10 sp32_10 78000.000000
Rwpos33_1 in33_1 sp33_1 78000.000000
Rwpos33_2 in33_2 sp33_2 78000.000000
Rwpos33_3 in33_3 sp33_3 78000.000000
Rwpos33_4 in33_4 sp33_4 78000.000000
Rwpos33_5 in33_5 sp33_5 202000.000000
Rwpos33_6 in33_6 sp33_6 78000.000000
Rwpos33_7 in33_7 sp33_7 202000.000000
Rwpos33_8 in33_8 sp33_8 78000.000000
Rwpos33_9 in33_9 sp33_9 78000.000000
Rwpos33_10 in33_10 sp33_10 202000.000000
Rwpos34_1 in34_1 sp34_1 202000.000000
Rwpos34_2 in34_2 sp34_2 78000.000000
Rwpos34_3 in34_3 sp34_3 202000.000000
Rwpos34_4 in34_4 sp34_4 202000.000000
Rwpos34_5 in34_5 sp34_5 78000.000000
Rwpos34_6 in34_6 sp34_6 202000.000000
Rwpos34_7 in34_7 sp34_7 78000.000000
Rwpos34_8 in34_8 sp34_8 202000.000000
Rwpos34_9 in34_9 sp34_9 78000.000000
Rwpos34_10 in34_10 sp34_10 78000.000000
Rwpos35_1 in35_1 sp35_1 78000.000000
Rwpos35_2 in35_2 sp35_2 202000.000000
Rwpos35_3 in35_3 sp35_3 78000.000000
Rwpos35_4 in35_4 sp35_4 78000.000000
Rwpos35_5 in35_5 sp35_5 202000.000000
Rwpos35_6 in35_6 sp35_6 202000.000000
Rwpos35_7 in35_7 sp35_7 202000.000000
Rwpos35_8 in35_8 sp35_8 202000.000000
Rwpos35_9 in35_9 sp35_9 78000.000000
Rwpos35_10 in35_10 sp35_10 78000.000000
Rwpos36_1 in36_1 sp36_1 78000.000000
Rwpos36_2 in36_2 sp36_2 78000.000000
Rwpos36_3 in36_3 sp36_3 78000.000000
Rwpos36_4 in36_4 sp36_4 202000.000000
Rwpos36_5 in36_5 sp36_5 78000.000000
Rwpos36_6 in36_6 sp36_6 202000.000000
Rwpos36_7 in36_7 sp36_7 78000.000000
Rwpos36_8 in36_8 sp36_8 202000.000000
Rwpos36_9 in36_9 sp36_9 202000.000000
Rwpos36_10 in36_10 sp36_10 78000.000000
Rwpos37_1 in37_1 sp37_1 78000.000000
Rwpos37_2 in37_2 sp37_2 78000.000000
Rwpos37_3 in37_3 sp37_3 202000.000000
Rwpos37_4 in37_4 sp37_4 202000.000000
Rwpos37_5 in37_5 sp37_5 78000.000000
Rwpos37_6 in37_6 sp37_6 78000.000000
Rwpos37_7 in37_7 sp37_7 78000.000000
Rwpos37_8 in37_8 sp37_8 78000.000000
Rwpos37_9 in37_9 sp37_9 78000.000000
Rwpos37_10 in37_10 sp37_10 202000.000000
Rwpos38_1 in38_1 sp38_1 202000.000000
Rwpos38_2 in38_2 sp38_2 78000.000000
Rwpos38_3 in38_3 sp38_3 78000.000000
Rwpos38_4 in38_4 sp38_4 78000.000000
Rwpos38_5 in38_5 sp38_5 78000.000000
Rwpos38_6 in38_6 sp38_6 202000.000000
Rwpos38_7 in38_7 sp38_7 78000.000000
Rwpos38_8 in38_8 sp38_8 202000.000000
Rwpos38_9 in38_9 sp38_9 78000.000000
Rwpos38_10 in38_10 sp38_10 202000.000000
Rwpos39_1 in39_1 sp39_1 78000.000000
Rwpos39_2 in39_2 sp39_2 202000.000000
Rwpos39_3 in39_3 sp39_3 78000.000000
Rwpos39_4 in39_4 sp39_4 78000.000000
Rwpos39_5 in39_5 sp39_5 78000.000000
Rwpos39_6 in39_6 sp39_6 202000.000000
Rwpos39_7 in39_7 sp39_7 78000.000000
Rwpos39_8 in39_8 sp39_8 202000.000000
Rwpos39_9 in39_9 sp39_9 202000.000000
Rwpos39_10 in39_10 sp39_10 78000.000000
Rwpos40_1 in40_1 sp40_1 202000.000000
Rwpos40_2 in40_2 sp40_2 78000.000000
Rwpos40_3 in40_3 sp40_3 202000.000000
Rwpos40_4 in40_4 sp40_4 78000.000000
Rwpos40_5 in40_5 sp40_5 78000.000000
Rwpos40_6 in40_6 sp40_6 78000.000000
Rwpos40_7 in40_7 sp40_7 78000.000000
Rwpos40_8 in40_8 sp40_8 202000.000000
Rwpos40_9 in40_9 sp40_9 78000.000000
Rwpos40_10 in40_10 sp40_10 202000.000000
Rwpos41_1 in41_1 sp41_1 78000.000000
Rwpos41_2 in41_2 sp41_2 78000.000000
Rwpos41_3 in41_3 sp41_3 78000.000000
Rwpos41_4 in41_4 sp41_4 78000.000000
Rwpos41_5 in41_5 sp41_5 202000.000000
Rwpos41_6 in41_6 sp41_6 78000.000000
Rwpos41_7 in41_7 sp41_7 202000.000000
Rwpos41_8 in41_8 sp41_8 78000.000000
Rwpos41_9 in41_9 sp41_9 78000.000000
Rwpos41_10 in41_10 sp41_10 202000.000000
Rwpos42_1 in42_1 sp42_1 78000.000000
Rwpos42_2 in42_2 sp42_2 78000.000000
Rwpos42_3 in42_3 sp42_3 78000.000000
Rwpos42_4 in42_4 sp42_4 202000.000000
Rwpos42_5 in42_5 sp42_5 202000.000000
Rwpos42_6 in42_6 sp42_6 202000.000000
Rwpos42_7 in42_7 sp42_7 78000.000000
Rwpos42_8 in42_8 sp42_8 78000.000000
Rwpos42_9 in42_9 sp42_9 202000.000000
Rwpos42_10 in42_10 sp42_10 202000.000000
Rwpos43_1 in43_1 sp43_1 78000.000000
Rwpos43_2 in43_2 sp43_2 78000.000000
Rwpos43_3 in43_3 sp43_3 78000.000000
Rwpos43_4 in43_4 sp43_4 202000.000000
Rwpos43_5 in43_5 sp43_5 202000.000000
Rwpos43_6 in43_6 sp43_6 78000.000000
Rwpos43_7 in43_7 sp43_7 202000.000000
Rwpos43_8 in43_8 sp43_8 78000.000000
Rwpos43_9 in43_9 sp43_9 78000.000000
Rwpos43_10 in43_10 sp43_10 202000.000000
Rwpos44_1 in44_1 sp44_1 202000.000000
Rwpos44_2 in44_2 sp44_2 78000.000000
Rwpos44_3 in44_3 sp44_3 78000.000000
Rwpos44_4 in44_4 sp44_4 78000.000000
Rwpos44_5 in44_5 sp44_5 78000.000000
Rwpos44_6 in44_6 sp44_6 78000.000000
Rwpos44_7 in44_7 sp44_7 78000.000000
Rwpos44_8 in44_8 sp44_8 78000.000000
Rwpos44_9 in44_9 sp44_9 202000.000000
Rwpos44_10 in44_10 sp44_10 78000.000000
Rwpos45_1 in45_1 sp45_1 202000.000000
Rwpos45_2 in45_2 sp45_2 78000.000000
Rwpos45_3 in45_3 sp45_3 78000.000000
Rwpos45_4 in45_4 sp45_4 78000.000000
Rwpos45_5 in45_5 sp45_5 202000.000000
Rwpos45_6 in45_6 sp45_6 78000.000000
Rwpos45_7 in45_7 sp45_7 78000.000000
Rwpos45_8 in45_8 sp45_8 202000.000000
Rwpos45_9 in45_9 sp45_9 78000.000000
Rwpos45_10 in45_10 sp45_10 202000.000000
Rwpos46_1 in46_1 sp46_1 78000.000000
Rwpos46_2 in46_2 sp46_2 78000.000000
Rwpos46_3 in46_3 sp46_3 202000.000000
Rwpos46_4 in46_4 sp46_4 78000.000000
Rwpos46_5 in46_5 sp46_5 78000.000000
Rwpos46_6 in46_6 sp46_6 202000.000000
Rwpos46_7 in46_7 sp46_7 78000.000000
Rwpos46_8 in46_8 sp46_8 78000.000000
Rwpos46_9 in46_9 sp46_9 78000.000000
Rwpos46_10 in46_10 sp46_10 78000.000000
Rwpos47_1 in47_1 sp47_1 78000.000000
Rwpos47_2 in47_2 sp47_2 78000.000000
Rwpos47_3 in47_3 sp47_3 78000.000000
Rwpos47_4 in47_4 sp47_4 78000.000000
Rwpos47_5 in47_5 sp47_5 78000.000000
Rwpos47_6 in47_6 sp47_6 202000.000000
Rwpos47_7 in47_7 sp47_7 78000.000000
Rwpos47_8 in47_8 sp47_8 202000.000000
Rwpos47_9 in47_9 sp47_9 202000.000000
Rwpos47_10 in47_10 sp47_10 78000.000000
Rwpos48_1 in48_1 sp48_1 78000.000000
Rwpos48_2 in48_2 sp48_2 78000.000000
Rwpos48_3 in48_3 sp48_3 78000.000000
Rwpos48_4 in48_4 sp48_4 78000.000000
Rwpos48_5 in48_5 sp48_5 78000.000000
Rwpos48_6 in48_6 sp48_6 78000.000000
Rwpos48_7 in48_7 sp48_7 78000.000000
Rwpos48_8 in48_8 sp48_8 78000.000000
Rwpos48_9 in48_9 sp48_9 78000.000000
Rwpos48_10 in48_10 sp48_10 202000.000000
Rwpos49_1 in49_1 sp49_1 202000.000000
Rwpos49_2 in49_2 sp49_2 78000.000000
Rwpos49_3 in49_3 sp49_3 78000.000000
Rwpos49_4 in49_4 sp49_4 202000.000000
Rwpos49_5 in49_5 sp49_5 78000.000000
Rwpos49_6 in49_6 sp49_6 202000.000000
Rwpos49_7 in49_7 sp49_7 78000.000000
Rwpos49_8 in49_8 sp49_8 78000.000000
Rwpos49_9 in49_9 sp49_9 78000.000000
Rwpos49_10 in49_10 sp49_10 202000.000000
Rwpos50_1 in50_1 sp50_1 78000.000000
Rwpos50_2 in50_2 sp50_2 78000.000000
Rwpos50_3 in50_3 sp50_3 78000.000000
Rwpos50_4 in50_4 sp50_4 78000.000000
Rwpos50_5 in50_5 sp50_5 78000.000000
Rwpos50_6 in50_6 sp50_6 202000.000000
Rwpos50_7 in50_7 sp50_7 78000.000000
Rwpos50_8 in50_8 sp50_8 78000.000000
Rwpos50_9 in50_9 sp50_9 78000.000000
Rwpos50_10 in50_10 sp50_10 202000.000000
Rwpos51_1 in51_1 sp51_1 78000.000000
Rwpos51_2 in51_2 sp51_2 202000.000000
Rwpos51_3 in51_3 sp51_3 202000.000000
Rwpos51_4 in51_4 sp51_4 78000.000000
Rwpos51_5 in51_5 sp51_5 78000.000000
Rwpos51_6 in51_6 sp51_6 78000.000000
Rwpos51_7 in51_7 sp51_7 202000.000000
Rwpos51_8 in51_8 sp51_8 78000.000000
Rwpos51_9 in51_9 sp51_9 78000.000000
Rwpos51_10 in51_10 sp51_10 202000.000000
Rwpos52_1 in52_1 sp52_1 202000.000000
Rwpos52_2 in52_2 sp52_2 78000.000000
Rwpos52_3 in52_3 sp52_3 78000.000000
Rwpos52_4 in52_4 sp52_4 202000.000000
Rwpos52_5 in52_5 sp52_5 78000.000000
Rwpos52_6 in52_6 sp52_6 202000.000000
Rwpos52_7 in52_7 sp52_7 78000.000000
Rwpos52_8 in52_8 sp52_8 78000.000000
Rwpos52_9 in52_9 sp52_9 78000.000000
Rwpos52_10 in52_10 sp52_10 202000.000000
Rwpos53_1 in53_1 sp53_1 78000.000000
Rwpos53_2 in53_2 sp53_2 78000.000000
Rwpos53_3 in53_3 sp53_3 78000.000000
Rwpos53_4 in53_4 sp53_4 78000.000000
Rwpos53_5 in53_5 sp53_5 78000.000000
Rwpos53_6 in53_6 sp53_6 78000.000000
Rwpos53_7 in53_7 sp53_7 78000.000000
Rwpos53_8 in53_8 sp53_8 78000.000000
Rwpos53_9 in53_9 sp53_9 78000.000000
Rwpos53_10 in53_10 sp53_10 78000.000000
Rwpos54_1 in54_1 sp54_1 78000.000000
Rwpos54_2 in54_2 sp54_2 202000.000000
Rwpos54_3 in54_3 sp54_3 78000.000000
Rwpos54_4 in54_4 sp54_4 78000.000000
Rwpos54_5 in54_5 sp54_5 78000.000000
Rwpos54_6 in54_6 sp54_6 78000.000000
Rwpos54_7 in54_7 sp54_7 78000.000000
Rwpos54_8 in54_8 sp54_8 78000.000000
Rwpos54_9 in54_9 sp54_9 78000.000000
Rwpos54_10 in54_10 sp54_10 202000.000000
Rwpos55_1 in55_1 sp55_1 78000.000000
Rwpos55_2 in55_2 sp55_2 202000.000000
Rwpos55_3 in55_3 sp55_3 202000.000000
Rwpos55_4 in55_4 sp55_4 78000.000000
Rwpos55_5 in55_5 sp55_5 78000.000000
Rwpos55_6 in55_6 sp55_6 78000.000000
Rwpos55_7 in55_7 sp55_7 202000.000000
Rwpos55_8 in55_8 sp55_8 78000.000000
Rwpos55_9 in55_9 sp55_9 202000.000000
Rwpos55_10 in55_10 sp55_10 78000.000000
Rwpos56_1 in56_1 sp56_1 78000.000000
Rwpos56_2 in56_2 sp56_2 78000.000000
Rwpos56_3 in56_3 sp56_3 202000.000000
Rwpos56_4 in56_4 sp56_4 202000.000000
Rwpos56_5 in56_5 sp56_5 202000.000000
Rwpos56_6 in56_6 sp56_6 78000.000000
Rwpos56_7 in56_7 sp56_7 78000.000000
Rwpos56_8 in56_8 sp56_8 202000.000000
Rwpos56_9 in56_9 sp56_9 78000.000000
Rwpos56_10 in56_10 sp56_10 78000.000000
Rwpos57_1 in57_1 sp57_1 78000.000000
Rwpos57_2 in57_2 sp57_2 78000.000000
Rwpos57_3 in57_3 sp57_3 78000.000000
Rwpos57_4 in57_4 sp57_4 202000.000000
Rwpos57_5 in57_5 sp57_5 78000.000000
Rwpos57_6 in57_6 sp57_6 78000.000000
Rwpos57_7 in57_7 sp57_7 202000.000000
Rwpos57_8 in57_8 sp57_8 202000.000000
Rwpos57_9 in57_9 sp57_9 78000.000000
Rwpos57_10 in57_10 sp57_10 78000.000000
Rwpos58_1 in58_1 sp58_1 202000.000000
Rwpos58_2 in58_2 sp58_2 78000.000000
Rwpos58_3 in58_3 sp58_3 202000.000000
Rwpos58_4 in58_4 sp58_4 78000.000000
Rwpos58_5 in58_5 sp58_5 202000.000000
Rwpos58_6 in58_6 sp58_6 78000.000000
Rwpos58_7 in58_7 sp58_7 78000.000000
Rwpos58_8 in58_8 sp58_8 78000.000000
Rwpos58_9 in58_9 sp58_9 78000.000000
Rwpos58_10 in58_10 sp58_10 78000.000000
Rwpos59_1 in59_1 sp59_1 78000.000000
Rwpos59_2 in59_2 sp59_2 78000.000000
Rwpos59_3 in59_3 sp59_3 78000.000000
Rwpos59_4 in59_4 sp59_4 78000.000000
Rwpos59_5 in59_5 sp59_5 202000.000000
Rwpos59_6 in59_6 sp59_6 202000.000000
Rwpos59_7 in59_7 sp59_7 202000.000000
Rwpos59_8 in59_8 sp59_8 202000.000000
Rwpos59_9 in59_9 sp59_9 202000.000000
Rwpos59_10 in59_10 sp59_10 78000.000000
Rwpos60_1 in60_1 sp60_1 78000.000000
Rwpos60_2 in60_2 sp60_2 78000.000000
Rwpos60_3 in60_3 sp60_3 78000.000000
Rwpos60_4 in60_4 sp60_4 202000.000000
Rwpos60_5 in60_5 sp60_5 78000.000000
Rwpos60_6 in60_6 sp60_6 78000.000000
Rwpos60_7 in60_7 sp60_7 78000.000000
Rwpos60_8 in60_8 sp60_8 78000.000000
Rwpos60_9 in60_9 sp60_9 202000.000000
Rwpos60_10 in60_10 sp60_10 78000.000000
Rwpos61_1 in61_1 sp61_1 202000.000000
Rwpos61_2 in61_2 sp61_2 78000.000000
Rwpos61_3 in61_3 sp61_3 78000.000000
Rwpos61_4 in61_4 sp61_4 202000.000000
Rwpos61_5 in61_5 sp61_5 202000.000000
Rwpos61_6 in61_6 sp61_6 78000.000000
Rwpos61_7 in61_7 sp61_7 202000.000000
Rwpos61_8 in61_8 sp61_8 78000.000000
Rwpos61_9 in61_9 sp61_9 78000.000000
Rwpos61_10 in61_10 sp61_10 78000.000000
Rwpos62_1 in62_1 sp62_1 78000.000000
Rwpos62_2 in62_2 sp62_2 202000.000000
Rwpos62_3 in62_3 sp62_3 202000.000000
Rwpos62_4 in62_4 sp62_4 78000.000000
Rwpos62_5 in62_5 sp62_5 78000.000000
Rwpos62_6 in62_6 sp62_6 78000.000000
Rwpos62_7 in62_7 sp62_7 78000.000000
Rwpos62_8 in62_8 sp62_8 78000.000000
Rwpos62_9 in62_9 sp62_9 202000.000000
Rwpos62_10 in62_10 sp62_10 78000.000000
Rwpos63_1 in63_1 sp63_1 78000.000000
Rwpos63_2 in63_2 sp63_2 78000.000000
Rwpos63_3 in63_3 sp63_3 78000.000000
Rwpos63_4 in63_4 sp63_4 202000.000000
Rwpos63_5 in63_5 sp63_5 202000.000000
Rwpos63_6 in63_6 sp63_6 78000.000000
Rwpos63_7 in63_7 sp63_7 78000.000000
Rwpos63_8 in63_8 sp63_8 202000.000000
Rwpos63_9 in63_9 sp63_9 78000.000000
Rwpos63_10 in63_10 sp63_10 78000.000000
Rwpos64_1 in64_1 sp64_1 78000.000000
Rwpos64_2 in64_2 sp64_2 78000.000000
Rwpos64_3 in64_3 sp64_3 78000.000000
Rwpos64_4 in64_4 sp64_4 78000.000000
Rwpos64_5 in64_5 sp64_5 78000.000000
Rwpos64_6 in64_6 sp64_6 78000.000000
Rwpos64_7 in64_7 sp64_7 78000.000000
Rwpos64_8 in64_8 sp64_8 78000.000000
Rwpos64_9 in64_9 sp64_9 78000.000000
Rwpos64_10 in64_10 sp64_10 78000.000000
Rwpos65_1 in65_1 sp65_1 78000.000000
Rwpos65_2 in65_2 sp65_2 78000.000000
Rwpos65_3 in65_3 sp65_3 202000.000000
Rwpos65_4 in65_4 sp65_4 78000.000000
Rwpos65_5 in65_5 sp65_5 78000.000000
Rwpos65_6 in65_6 sp65_6 78000.000000
Rwpos65_7 in65_7 sp65_7 78000.000000
Rwpos65_8 in65_8 sp65_8 202000.000000
Rwpos65_9 in65_9 sp65_9 202000.000000
Rwpos65_10 in65_10 sp65_10 78000.000000
Rwpos66_1 in66_1 sp66_1 202000.000000
Rwpos66_2 in66_2 sp66_2 202000.000000
Rwpos66_3 in66_3 sp66_3 78000.000000
Rwpos66_4 in66_4 sp66_4 202000.000000
Rwpos66_5 in66_5 sp66_5 78000.000000
Rwpos66_6 in66_6 sp66_6 78000.000000
Rwpos66_7 in66_7 sp66_7 78000.000000
Rwpos66_8 in66_8 sp66_8 78000.000000
Rwpos66_9 in66_9 sp66_9 78000.000000
Rwpos66_10 in66_10 sp66_10 202000.000000
Rwpos67_1 in67_1 sp67_1 202000.000000
Rwpos67_2 in67_2 sp67_2 78000.000000
Rwpos67_3 in67_3 sp67_3 78000.000000
Rwpos67_4 in67_4 sp67_4 78000.000000
Rwpos67_5 in67_5 sp67_5 78000.000000
Rwpos67_6 in67_6 sp67_6 202000.000000
Rwpos67_7 in67_7 sp67_7 78000.000000
Rwpos67_8 in67_8 sp67_8 202000.000000
Rwpos67_9 in67_9 sp67_9 78000.000000
Rwpos67_10 in67_10 sp67_10 78000.000000
Rwpos68_1 in68_1 sp68_1 202000.000000
Rwpos68_2 in68_2 sp68_2 202000.000000
Rwpos68_3 in68_3 sp68_3 78000.000000
Rwpos68_4 in68_4 sp68_4 202000.000000
Rwpos68_5 in68_5 sp68_5 78000.000000
Rwpos68_6 in68_6 sp68_6 78000.000000
Rwpos68_7 in68_7 sp68_7 78000.000000
Rwpos68_8 in68_8 sp68_8 202000.000000
Rwpos68_9 in68_9 sp68_9 202000.000000
Rwpos68_10 in68_10 sp68_10 78000.000000
Rwpos69_1 in69_1 sp69_1 78000.000000
Rwpos69_2 in69_2 sp69_2 202000.000000
Rwpos69_3 in69_3 sp69_3 202000.000000
Rwpos69_4 in69_4 sp69_4 202000.000000
Rwpos69_5 in69_5 sp69_5 78000.000000
Rwpos69_6 in69_6 sp69_6 78000.000000
Rwpos69_7 in69_7 sp69_7 202000.000000
Rwpos69_8 in69_8 sp69_8 202000.000000
Rwpos69_9 in69_9 sp69_9 78000.000000
Rwpos69_10 in69_10 sp69_10 78000.000000
Rwpos70_1 in70_1 sp70_1 78000.000000
Rwpos70_2 in70_2 sp70_2 202000.000000
Rwpos70_3 in70_3 sp70_3 202000.000000
Rwpos70_4 in70_4 sp70_4 78000.000000
Rwpos70_5 in70_5 sp70_5 78000.000000
Rwpos70_6 in70_6 sp70_6 78000.000000
Rwpos70_7 in70_7 sp70_7 202000.000000
Rwpos70_8 in70_8 sp70_8 78000.000000
Rwpos70_9 in70_9 sp70_9 78000.000000
Rwpos70_10 in70_10 sp70_10 202000.000000
Rwpos71_1 in71_1 sp71_1 78000.000000
Rwpos71_2 in71_2 sp71_2 78000.000000
Rwpos71_3 in71_3 sp71_3 202000.000000
Rwpos71_4 in71_4 sp71_4 202000.000000
Rwpos71_5 in71_5 sp71_5 202000.000000
Rwpos71_6 in71_6 sp71_6 78000.000000
Rwpos71_7 in71_7 sp71_7 78000.000000
Rwpos71_8 in71_8 sp71_8 202000.000000
Rwpos71_9 in71_9 sp71_9 78000.000000
Rwpos71_10 in71_10 sp71_10 78000.000000
Rwpos72_1 in72_1 sp72_1 78000.000000
Rwpos72_2 in72_2 sp72_2 78000.000000
Rwpos72_3 in72_3 sp72_3 78000.000000
Rwpos72_4 in72_4 sp72_4 78000.000000
Rwpos72_5 in72_5 sp72_5 78000.000000
Rwpos72_6 in72_6 sp72_6 78000.000000
Rwpos72_7 in72_7 sp72_7 202000.000000
Rwpos72_8 in72_8 sp72_8 78000.000000
Rwpos72_9 in72_9 sp72_9 78000.000000
Rwpos72_10 in72_10 sp72_10 78000.000000
Rwpos73_1 in73_1 sp73_1 202000.000000
Rwpos73_2 in73_2 sp73_2 78000.000000
Rwpos73_3 in73_3 sp73_3 202000.000000
Rwpos73_4 in73_4 sp73_4 202000.000000
Rwpos73_5 in73_5 sp73_5 78000.000000
Rwpos73_6 in73_6 sp73_6 78000.000000
Rwpos73_7 in73_7 sp73_7 202000.000000
Rwpos73_8 in73_8 sp73_8 78000.000000
Rwpos73_9 in73_9 sp73_9 78000.000000
Rwpos73_10 in73_10 sp73_10 78000.000000
Rwpos74_1 in74_1 sp74_1 202000.000000
Rwpos74_2 in74_2 sp74_2 78000.000000
Rwpos74_3 in74_3 sp74_3 78000.000000
Rwpos74_4 in74_4 sp74_4 202000.000000
Rwpos74_5 in74_5 sp74_5 78000.000000
Rwpos74_6 in74_6 sp74_6 202000.000000
Rwpos74_7 in74_7 sp74_7 202000.000000
Rwpos74_8 in74_8 sp74_8 78000.000000
Rwpos74_9 in74_9 sp74_9 78000.000000
Rwpos74_10 in74_10 sp74_10 78000.000000
Rwpos75_1 in75_1 sp75_1 78000.000000
Rwpos75_2 in75_2 sp75_2 78000.000000
Rwpos75_3 in75_3 sp75_3 78000.000000
Rwpos75_4 in75_4 sp75_4 78000.000000
Rwpos75_5 in75_5 sp75_5 202000.000000
Rwpos75_6 in75_6 sp75_6 202000.000000
Rwpos75_7 in75_7 sp75_7 202000.000000
Rwpos75_8 in75_8 sp75_8 202000.000000
Rwpos75_9 in75_9 sp75_9 78000.000000
Rwpos75_10 in75_10 sp75_10 78000.000000
Rwpos76_1 in76_1 sp76_1 78000.000000
Rwpos76_2 in76_2 sp76_2 78000.000000
Rwpos76_3 in76_3 sp76_3 78000.000000
Rwpos76_4 in76_4 sp76_4 202000.000000
Rwpos76_5 in76_5 sp76_5 78000.000000
Rwpos76_6 in76_6 sp76_6 202000.000000
Rwpos76_7 in76_7 sp76_7 78000.000000
Rwpos76_8 in76_8 sp76_8 78000.000000
Rwpos76_9 in76_9 sp76_9 78000.000000
Rwpos76_10 in76_10 sp76_10 78000.000000
Rwpos77_1 in77_1 sp77_1 202000.000000
Rwpos77_2 in77_2 sp77_2 78000.000000
Rwpos77_3 in77_3 sp77_3 202000.000000
Rwpos77_4 in77_4 sp77_4 78000.000000
Rwpos77_5 in77_5 sp77_5 202000.000000
Rwpos77_6 in77_6 sp77_6 78000.000000
Rwpos77_7 in77_7 sp77_7 78000.000000
Rwpos77_8 in77_8 sp77_8 202000.000000
Rwpos77_9 in77_9 sp77_9 78000.000000
Rwpos77_10 in77_10 sp77_10 78000.000000
Rwpos78_1 in78_1 sp78_1 202000.000000
Rwpos78_2 in78_2 sp78_2 202000.000000
Rwpos78_3 in78_3 sp78_3 78000.000000
Rwpos78_4 in78_4 sp78_4 202000.000000
Rwpos78_5 in78_5 sp78_5 202000.000000
Rwpos78_6 in78_6 sp78_6 202000.000000
Rwpos78_7 in78_7 sp78_7 202000.000000
Rwpos78_8 in78_8 sp78_8 78000.000000
Rwpos78_9 in78_9 sp78_9 202000.000000
Rwpos78_10 in78_10 sp78_10 202000.000000
Rwpos79_1 in79_1 sp79_1 78000.000000
Rwpos79_2 in79_2 sp79_2 78000.000000
Rwpos79_3 in79_3 sp79_3 202000.000000
Rwpos79_4 in79_4 sp79_4 202000.000000
Rwpos79_5 in79_5 sp79_5 78000.000000
Rwpos79_6 in79_6 sp79_6 78000.000000
Rwpos79_7 in79_7 sp79_7 78000.000000
Rwpos79_8 in79_8 sp79_8 202000.000000
Rwpos79_9 in79_9 sp79_9 78000.000000